input/SIN/SIN/DS_ONS_022022_RV0D04/media.pwf
TITU
ONS PDPM Fevereiro 2022 - MEDIA                                                 
DAGR
(AG (         D E S C R I C A O        )
  6 SUBMERCADOS DO SIN                   
(ID O (       Nome de Identificacao      )
  1   SUDESTE/CENTRO-OESTE                 
  2   SUL                                  
  3   NORDESTE                             
  4   NORTE                                
FAGR
99999
DOPC IMPR
(Op) E (Op) E (Op) E (Op) E (Op) E (Op) E (Op) E (Op) E (Op) E (Op) E
QLIM L STEP L NEWT L LFDC L RCVG L RMON L FILE L SUBS L CONT L NOVO L
CELO L MFCT L AREG L STPO L VLCR L CPHS L
99999
DCTE
(Mn) ( Val) (Mn) ( Val) (Mn) ( Val) (Mn) ( Val) (Mn) ( Val) (Mn) ( Val) 
BASE   100. DASE   100. TEPA    .01 EXST    .04 TETP     5. TBPA     5.
TLPP     1. TEPR    .01 QLST    .04 TLPR    .01 TLPQ     2. TSBZ    .01
TSBA     5. ASTP    .05 VSTP     5. TLVC    .05 TLTC    .01 TSFR  .1E-7
ZMAX   500. TLPV     .5 VDVM   200. VDVN    40. TUDC   .001 TADC    .01
PGER    30. TPST    .02 VFLD    70. ZMIN  .0001 HIST    470 LFIT     10
ACIT    100 LFCV      1 DCIT     10 VSIT     10 LPIT     50 LFLP     10
PDIT     10 LCRT    200 LPRT     60 CSTP     5. ASDC     1.
ICIT     50 DMAX      5 FDIV     2. ICMN    .05 VART     5. TSTP     32
ICMV     .5 APAS    90. CPAR    70. VAVT     2. VAVF     5. VMVF    15.
VPVT     2. VPVF     5. VPMF    10. VSVF    20. VINF     1. VSUP     1.
TLSI     0. NDIR    20. STTR     5. TRPT   100. STIR     1. BFPO     1.
LFPO     .1 TLMT     0. TLMF     0. TLMG     0. PARS    10.            
99999
DBAR
(Num)OETGb(   nome   )Gl( V)( A)( Pg)( Qg)( Qn)( Qm)(Bc  )( Pl)( Ql)( Sh)Are(Vf)M(1)(2)(3)(4)(5)(6)(7)(8)(9)(10
   10 L1 VANGRA1UNE001 5 967-116     -65.8-211. 414.        32. 15.5     2211000                  1                
   11 L1 VANGRA2UNE001 5 963-115     -174.-600. 600.        65. 31.5     2211000                  1                
   12 L1 VLCBARRUHE006 5 992-105     -52.8-540. 420.                     2041000                  1                
   13 L1 TLCBARRSIN000 5 993-111        0.   0.   0.                     2041000                  1                
   14 L1 VFUNIL-UHE001 51002-133     -86.4-100. 100.                     2251000                  1                
   16 L1 VFURNASUHE008 5 996-113      25.9-400. 400.                     1891000                  1                
   17 L1 TFURNASSIN000 5 997-119        0.   0.   0.                     1891000                  1                
   18 L1 VITUMBIUHE006 5 978-98.     535.1-546. 600.                     1881000                  1                
   19 L1 TITUMBISIN000 5 994-107        0.   0.   0.                     1881000                  1                
   20 L1 VMARIMBUHE008 51033-88.     521.7-640. 640.                     1881000                  1                
   21 L1 VMANSO-UHE004 5 950-73.      -80. -80.  84.                     1371000                  1                
   22 L1 VM.MORAUHE006 5 994-105       1.7-120. 126.                     1891000                  1                
   23 L1 TCBRAV-SIN000 51000-145        0.   0.   0.                     1491000                  1                
   24 L1 VM.MORBUHE004 5 969-105       62. -24.  62.                     2081000                  1                
   27 L  CCPAUL2-SP500 31000-124                                         2021000                  1                
   28 L1 VPCOLOMUHE004 5 989-83.     -13.8-100. 100.                     2081000                  1                
   30 L1 VSCRU19UTE000 51006-136        0.   0.   0.                     2241000                  1                
   31 L1 VSCRU13UTE000 5 963-136        0.   0.   0.                     2241000                  1                
   32 L1 VSCRU16UTE000 51006-136        0.   0.   0.                     2241000                  1                
   35 L1 VCORUMBUHE003 5 954-109     -48.5-180. 180.                     1481000                  1                
   36 L1 VS.MESAUHE003 5 957-153      480.-480. 480.                     1471000                  1                
   37 L1 TS.MESASIN000 5 972-159        0.   0.   0.                     1471000                  1                
   38 L1 TGRAJA2SIN001 51019-136     -59.5-120. 200.   178               2211000                  1                
   41 L1 TVITOR2SIN001 51008-170     24.14 -30.  60.                     2341000                  1                
   44 L1 TGRAJA1SIN001 51019-137     -37.7-120. 200.   178               2211000                  1                
   46 L  ECAMPOSCER345 51033-159                                         2221096                  1                
   47 L1 TVITOR1SIN001 51008-170     25.82 -30.  60.                     2341000                  1                
   48 L1 TIBIUNASIN003 5 980-128     -378.-540. 900.    86               2041000                  1                
   50 D1 TTPRETOSIN001 5 950-166     75.45-180. 300.                     2011000                  1                
   52 L  EP.ACU--RJ345 51000-159                                         2221000                  1                
   53 L1 QGNA1G-UTE000 51002-159        0.   0.   0.                     2221000                  1                
   54 L1 QGNA1V-UTE000 51002-159        0.   0.   0.                     2221000                  1                
   55 L  FBALTO-CER230 5 994-165                                         1491000                  1                
   56 L  IIVAIP3-PR069OR1000-116                                         2011000                  1                
   57 L  IIVAIP2-PR069OR1000-116                                         201 960                  1                
   58 L  UIVAIP2-PR000 61000-116                                         201 960                  1                
   59 L  UIVAIP3-PR000 61000-116                                         2011000                  1                
   60 L  AF.IGUA-PR765 11000-108                                         2011000                  1                
   61 L  CFZ-500-PR500 31000-106                                         1011000                  2                
   62 L  AIV-FZ1CAP765 11000-120                                         2011000                  1                
   63 L  AIV-FZ2CAP765 11000-120                                         2011000                  1                
   64 L  AIV-FZ3CAP765 11000-120                                         2011034                  1                
   65 L  AIVAIPO-PR765 11000-115                                         2011000                  1                
   66 L  BIVAIPO-PR525 21031-116                                         1011000                  2                
   67 L  IIVAIP1-PR069OR1000-116                            .24   0.     2011000                  1                
   68 L  UIVAIP1-PR000 61000-116                                         2011000                  1                
   69 L  AIV-IT1CAP765 11000-111                                         2011000                  1                
   70 L  AIV-IT2CAP765 11000-111                                         2011000                  1                
   71 L  AIV-IT3CAP765 11000-111                                         2011030                  1                
   72 L  AITABER-SP765 11000-119                                         2011000                  1                
   73 L  AIT-TP1CAP765 11000-114                                         2011000                  1                
   74 L  AIT-TP2CAP765 11000-114                                         2011000                  1                
   75 L  AIT-TP3CAP765 11000-115                                         2011000                  1                
   76 L  ATPRETO-SP765 11000-124                                         2011000                  1                
   77 L  CTPRETO-SP500 31017-124                                         2021000                  1                
   78 L  ETPRETO-SP345 51025-128                                         2041000                  1                
   79 L  ITPRETO-SP069OR1000-124                                         2011000                  1                
   80 L  UTPRET3-SP000 61000-124                                         2011000                  1                
   81 L  UTPRET4-SP000 6 930-128                                         2011000                  1                
   82 L  ETPRET2-SP345 51025-128                                         2041000                  1                
   84 L  GRESEN2-RJ138 51008-128                                         2251000                  1                
   85 L  CFOZ500-PR500 31000-.13                            60.   0.     2411000                  1                
   86 L1 EIBIUNA-SP345 51030-128     -898.-99999999.                     2041000                  1                
   87 L  CRESEND-RJ500 31000-125                                         2211000                  1                
   90 L  EVIANA--ES345 51000-169                                         2341010                  1                
   91 L  NVIANA1-ES013 51000-171                                         2341010                  1                
   92 L  CSB-SM1CAP500 31000-140                                         1471000                  1                
   93 L  CSB-SM2CAP500 31000-143                                         1471000                  1                
   94 L  CSB-SM3CAP500 31000-142                                         1471000                  1                
   95 L  NVIANA2-ES013 51000-171                                         2341010                  1                
   96 L  NVIANA3-ES013 51000-171                                         2341000                  1                
   98 L  GJACAR1-RJ138 5 997-138                                         2241000                  1                
   99 L  BARARAQ-SP525 21000-100                                         2021000                  1                
  100 L  CMARIMB-MG500 31045-95.                                         1881000                  1                
  101 L  CARARAQ-SP500 31000-100                                         2021000                  1                
  102 L  CP.CALD-MG500 31000-113                                         1881000                  1                
  103 L  CCAMPIN-SP500 31000-120                                         2021000                  1                
  104 L  CC.PAUL-SP500 31000-122                                         2021000                  1                
  105 L  CANGRA--RJ500 31000-122                                         2211000                  1                
  106 L  CADRIAN-RJ500 31000-129                                         2211000                  1                
  107 L  CGRAJAU-RJ500 31000-131                                         2211000                  1                
  108 L  CS.JOSE-RJ500 31000-130                                         2211000                  1                
  109 L  CBYPSAD-RJ500 31000-129                                         2211000                  1                
  110 L  UGR1T52-RJ000 61000-137                                         2211000                  1                
  112 L  CBA-IB1-PR500 31000-137                                         1011000                  2                
  113 L  CBA-IB2-PR500 31000-137                                         1011000                  2                
  114 L  CBA-IT1-PR500 31000-137                                         1011000                  2                
  115 L  CBA-IT1CAP500 31000-153                                         2021000                  1                
  116 L  GIMBTAP-RJ138 51000-143                                         2261000                  1                
  118 L  UBANDT4-GO000 51000-126                                         1481000                  1                
  119 L  XBANDTE-GO013 51000-126                                         1481000                  1                
  120 L  EP.CALD-MG345 51003-121                                         1891000                  1                
  121 L  UPCAT51-MG000 61000-123                                         1881000                  1                
  122 L  CIBIUNA-SP500 31036-129                                         2021000                  1                
  123 L  ECAMPIN-SP345 5 990-124                                         2041000                  1                
  124 L  UCAMPI1-SP000 61000-125                                         2021000                  1                
  125 L  CIB-BA1CAP500 31000-121                                         2021000                  1                
  126 L  EGUARUL-SP345 51000-131                                         2041000                  1                
  127 L  EMO-RL1-SP345 51000-128                                         2041000                  1                
  128 L  EMO-RL2-SP345 51000-128                                         2041015                  1                
  129 L  EMOGI---SP345 51000-129                                         2041000                  1                
  130 L  CIB-BA2CAP500 31000-121                                         2021000                  1                
  131 L  EM.MORA-MG345 51000-111                                         1891000                  1                
  133 L  UADRT1A-RJ000 61000-140                                         2221000                  1                
  134 L  ELCBARR-SP345 51000-111                                         2041000                  1                
  135 L  UJACT1A-RJ000 61000-138                                         2221000                  1                
  136 L  EFURNAS-MG345 51000-119                                         1891000                  1                
  137 L  UJACT2A-RJ000 61000-138                                         2221000                  1                
  138 L  EITUTIN-MG345 51000-133                                         1891000                  1                
  139 L  UADRT51-RJ000 61000-137                                         2211014                  1                
  140 L  EADRIAN-RJ345 51012-136                                         2221000                  1                
  141 L  UADRT53-RJ000 61000-138                                         2211000                  1                
  142 L  UADRT55-RJ000 61000-140                                         2211070                  1                
  143 L  UADRT2B-RJ000 61000-140                                         2221070                  1                
  144 L  EJACARE-RJ345 51000-136                                         2221000                  1                
  145 L  UADRT1B-RJ000 61000-140                                         2221000                  1                
  146 L  UADRT2A-RJ000 61000-140                                         2221000                  1                
  147 L  ECAMPOS-RJ345 51000-159                            27.  5.5     2221000                  1                
  148 L  UCAMPO1-RJ000 61000-161                                         2221000                  1                
  149 L  EVITORI-ES345 51000-170                                         2341000                  1                
  150 L  UVITAT1-ES000 61000-173                                         2341000                  1                
  152 L  UVITAT2-ES000 61000-173                                         2341000                  1                
  153 L  UVITAT3-ES000 61000-173                                         2341000                  1                
  154 L  NVITAT2-ES013 51000-173                                         2341000                  1                
  155 L  NVITAT3-ES013 51000-173                                         2341000                  1                
  156 L  NVITAT4-ES013 51000-173                                         2341000                  1                
  157 L  ECAMPCA-RJ345 51000-159                                         2221000                  1                
  158 L  UVITAT4-ES000 61000-173                                         2341000                  1                
  159 L  XJA-R30-RJ013 51000-138                                         2221000                  1                
  160 L  XJB-R60-RJ013 51000-138                                         2221000                  1                
  161 L  FMO-FCE-SP230 5 980-130                                         2051000                  1                
  162 L  UCAMAT1-SP000 61000-126                                         2041000                  1                
  163 L  XCAMPI--SP013 51000-126                                         2041000                  1                
  164 L  UPCAT02-MG000 61000-122                                         1891000                  1                
  165 L  NP.CAL--MG013 51000-122                                         1891000                  1                
  166 L  UJACT1B-RJ000 61000-138                                         2221000                  1                
  167 L  XJA-R60-RJ013 51000-138                                         2221000                  1                
  169 L  GSJOSE2-RJ138 51019-138                                         2241000                  1                
  170 L  GP.CALD-MG138 51010-122                                         1961000                  1                
  171 L  GCAMPIN-SP138 5 996-126                           1.01   0.     2071000                  1                
  172 L  GIMBARE-RJ138 51000-140                                         2261000                  1                
  173 L  GADRIAN-RJ138 51037-140                                         2261000                  1                
  174 L GCR.LEAO-RJ138 51000-160                                         2281000                  1                
  175 L GCCAMPOS-RJ138 51041-161                            .25   0.     2291000                  1                
  176 L  UCAMPI2-SP000 61000-125                                         2021000                  1                
  177 L  GVITORI-ES138 5 998-173                                         2361000                  1                
  178 L  GGRAJAU-RJ138 51004-135                                         2241000                  1                
  179 L  UGR2T54-RJ000 61000-136                                         2211000                  1                
  180 L  GJACAR2-RJ138 5 997-138                                         2241000                  1                
  181 L  GANGDEF-RJ138 51000-130        0.                               2211037                  1                
  182 L  GFUNIL--RJ138 51000-136                                         2251000                  1                
  183 L  GC.PAUL-SP138 51001-125                                         2141000                  1                
  184 L GCS.CRUZ-RJ138 51000-136                                         2241000                  1                
  185 L  GANGRA--RJ138 51000-126        0.                   3.   0.     2251000                  1                
  186 L  NCAMPI2-SP013 51000-125                                         2021000                  1                
  187 L  GM.MORA-MG138 51028-111                                         1951000                  1                
  189 L  UBGERT1-DF000 61000-154                                         1591000                  1                
  190 L  GP.COL--MG138 51000-90.                                         2081000                  1                
  192 L  NCM1CAP-RJ013 51000-161                                         2221000                  1                
  194 L  NADRT55-RJ013 51000-140                                         2211070                  1                
  195 L  NADRT53-RJ013 51000-138                                         2211000                  1                
  196 L  NCAMPI1-SP013 51000-125                                         2021000                  1                
  197 L  NADRT51-RJ013 51000-137                                         2211014                  1                
  198 L  NPCALAT-MG013 51000-123                                         1881000                  1                
  199 L  NVITAT1-ES013 51000-173                                         2341000                  1                
  200 L  UUCAMP1-RJ000 61000-165                                         2291000                  1                
  201 L1 VRSIL-1UTE001 51020-165        0.   0.   0.       1.16   0.     2291000                  1                
  202 L  UUCAMP2-RJ000 61000-165                                         2291000                  1                
  203 L1 VRSIL-2UTE001 51020-165        0.   0.   0.       1.16   0.     2291000                  1                
  204 L  NADRT1B-RJ013 51000-140                                         2221000                  1                
  205 L  NADRT2A-RJ013 51000-140                                         2221000                  1                
  206 L  NADRT2B-RJ013 51000-140                                         2221070                  1                
  208 L  NBGERT1-DF013 51000-154                                         1591000                  1                
  209 L  XADRIAN-RJ013 51000-140                                         2221000                  1                
  210 L  CITUMBI-MG500 31000-107                                         1881000                  1                
  211 L  UCAMPO2-RJ000 61000-161                                         2221000                  1                
  212 L  NCM2CAP-RJ013 51000-161                                         2221000                  1                
  213 L  EMARIMB-MG345 51000-100                                         1891000                  1                
  214 L  UMARIMB-MG000 61000-101                                         1881000                  1                
  216 L  EP.COL--MG345 51000-105        0.                               1891000                  1                
  217 L  EITUMBI-MG345 51000-110                                         1891000                  1                
  218 L  EBANDEI-GO345 51000-128                                         1481000                  1                
  219 L  EB.SUL--DF345 51000-148                                         1581000                  1                
  220 L  ECORUMB-GO345 51000-116                                         1481000                  1                
  221 L  LB.GERA-DF034 51014-154                                         1601000                  1                
  222 L  UBSULT2-DF000 61000-149                                         1581000                  1                
  223 L  UBANDT1-GO000 51000-126                                         1481000                  1                
  224 L  UBANDT2-GO000 51000-126                                         1481000                  1                
  225 L  FITUMBI-MG230 51024-108                                         1901000                  1                
  226 L  FBANDEI-GO230 51000-126                                         1491000                  1                
  227 L  FB.GERA-DF230 51000-149                                         1591000                  1                
  228 L  FB.SUL--DF230 51000-149                                         1591000                  1                
  229 L  FB.ALTO-GO230 51000-165                                         1491000                  1                
  230 L  FS.MESA-GO230 51006-155                                         1491000                  1                
  231 L  FR.VERD-GO230 51000-104                                         1491000                  1                
  232 L  NBSULT2-DF013 51000-149                                         1581000                  1                
  233 L  CSAMAMB-DF500 31000-150                                         1571000                  1                
  234 L  ESAMAMB-DF345 51005-148                                         1581000                  1                
  235 L  CS.MESA-GO500 31000-159                                         1471000                  1                
  236 L  GB.SUL--DF138 51023-153                            .81   0.     1601000                  1                
...
99999
DLIN
(De )d O d(Pa )NcEP ( R% )( X% )(Mvar)(Tap)(Tmn)(Tmx)(Phs)(Bc  )(Cn)(Ce)Ns(Cq)(1)(2)(3)(4)(5)(6)(7)(8)(9)(10
   27        87 1     .051  .782  66.5                          18552337  2337                                
   27      1503 1     .052  .792  66.5                          18552337  2337                                
   27      3010 2D    .189 3.158709.66                          24423464  3464                                
   27      3383 1     .014  .20530.353                          27282728  2728                                
   38       17954         3.0195         1.                     200.200.  200.                                
   44       11052             3.         1.                     200.200.  200.                                
   50        81 4          2.498         1.                     500.500.  500.                                
   52       147 1      .16 1.64627.714                          10581539  1539                                
   52       147 2      .161.646327.714                          10581539  1539                                
   53        52 1           2.97         1.                     99999999  370.                                
   54        52 1           2.18         1.                     99999999  550.                                
   56        59 1         3.3852         1.                     550.550.  1650                                
   57        58 1         3.6218         1.                     550.550.  550.                                
   60        62 1     .076  1.84 927.8                          41334174  4174                                
   60        63 1     .076  1.85 929.1                          41334174  4174                                
   60        64 1     .078  1.89954.57                          41334174  4174                                
   61        60 1 T         .622       1.05                     16501815  1880                                
   61        60 2 T        .6424       1.05                     16501815  1880                                
   61        60 3 T         .623       1.05                     16501815  1880                                
   61        60 4 T        .6226       1.05                     16501815  1880                                
   61        60 5           .623       1.05                     16501980  2309                                
   61     43421 1D   .11781.9883257.72                          30963622  3622                                
   61     43422 2D   .11781.9883257.72                          30963622  3622                                
   65        58 1          .8224       .993                     16501815  1815                                
   65        59 1          .7734         1.                     16501831  1897                                
   65        62 1          -.749                                36844174  4174                                
   65        63 2          -.749                                36844174  4174                                
   65        64 3          -.749                                36844174  4174                                
   65        68 1           .697       .993                     16501815  1995                                
   65        69 1          -.778                                36844174  4174                                
   65        70 2          -.778                                36844174  4174                                
   65        71 3          -.778                                36844174  4174                                
   66        58 1         -.1703      .9994 .8381.053         6616501815321815                                
   66        59 1         -.1183      .9994 .8381.053         6616501831321897                                
   66        68 1         -.0303      .9994 .8381.053         6616501815321995                                
   67        68 1         3.5455         1.                     550.550.  550.                                
   72        69 1     .064  1.53  760.                          41334174  4174                                
   72        70 1     .063  1.53 755.7                          41334174  4174                                
   72        71 1     .064  1.54 762.9                          41334174  4174                                
   72        73 1          -.915                                36844174  4174                                
   72        74 2          -.915                                36844174  4174                                
   72        75 3          -.915                                36844174  4174                                
   76        73 1     .074  1.75 877.5                          41334174  4174                                
   76        74 1     .072  1.75  873.                          41334174  4174                                
   76        75 1     .076  1.79 898.2                          41334174  4174                                
   76        80 3           .697       .993                     16501815  1995                                
   76        81 4         1.0276         1.                     15001650  1650                                
   77        76 1          .6739      1.053  .88 1.16         7716501650321650                                
   77        76 2          .6552      1.053  .88 1.16         7716501815321815                                
   77        80 3         -.0303       1.04  .88 1.16         7716501815321995                                
   77       104 1     .162   2.5 216.6                          18552337  2337                                
   77       598 1 T   .107  1.44 133.4                          18552252  2252                                
   77      3383 1     .115 1.712259.62                          27282728  2728                                
   78        76 5          .9007      1.115 .8591.115         7815001650321650                                
   78        81 4         -.1069      1.099 .8591.115         7815001650321650                                
   78        82 1           1.26                                450.450.  450.                                
   78        86 2 T   .187 2.602  60.1                          12801613  1613                                
   78       449 1      .07   .6612.845                          11841392  1392                                
   78       449 2      .07   .6612.845                          11841392  1392                                
   78       464 3 T    .11   .9917.073                          912.1103  1103                                
   78       471 1    .0954 .7982 14.39                          11841392  1184                                
   78       471 2    .0954 .7982 14.39                          11841392  1184                                
   79        80 3         3.5455         1.                     550.550.  550.                                
   82        76 6          .8916      1.115 .8591.115         8215001650321650                                
   82        76 7          .8714      1.115 .8591.115         8215001800321800                                
   82        86 1 T   .187 2.602  60.1                          12801613  1613                                
   82       449 3      .07   .6612.845                          13501350  1350                                
   82       449 4      .07   .6612.845                          13501350  1350                                
   84      1780 1       .7  1.78  .454                          120.120.  120.                                
   84      1780 2       .7  1.78  .454                          120.120.  120.                                
   84     11797 1      .32  .815 .2079                          122.130.  122.                                
   84     21797 1      .32  .815 .2079                          122.130.  122.                                
   84     42417 1           -.85      .9745 .9051.048         84300.360.32300.                                
   85      1103 3 T  .0056 .096910.041                          27283377  3377                                
   85      1103 4 T  .0054 .0936 9.691                          27283377  3377                                
   86        48 1           .953      1.013                     10501050  1050                                
   86       122 1         1.7111       1.04 .8951.048       -122750.750.32750.                                
   86       122 2         1.7042       1.04 .8951.048       -122750.750.32750.                                
   86       122 3         1.6718       1.04 .8951.048       -122750.900.321050                                
   86       488 1    .09481.4987 41.91                          20202390  2390                                
   86       488 2    .09481.4987 41.91                          20202390  2390                                
   87     42417 1           4.85         1.                     300.360.  300.                                
   87     42426 1         8.3333         1.                     150.180.  150.                                
   87     42428 1         11.458         1.                     120.144.  120.                                
   90      2590 1            .01                                370.370.  370.                                
   90      2608 1         4.8466      1.005                     225.270.  225.                                
   90      2618 1         4.8611      1.005                     225.270.  225.                                
   90      2628 1         4.6496      1.005                     225.270.  225.                                
   90      3032 1     .225 2.46841.546                          717.717.  717.                                
   91      2608 1         9.7001         1.                      75. 75.   75.                                
   95      2618 1         9.7726         1.                      75. 75.   75.                                
   96      2628 1         9.8304         1.                      75. 75.   75.                                
   98       135 1         -.2333      .9926   .9  1.1         98225.270.  225.                                
   98       166 1         -.3898      .9926   .9  1.1         98225.292.  225.                                
   98       178 1      .88  5.03 1.428                          194.247.  218.                                
   98      1429 1     .6723.8288 1.088                          194.247.  194.                                
   98      3237 1    .0811    .6 .7262                          478.602.  478.                                
   98      3238 1    .0811    .6 .7262                          478.602.  478.                                
   98      3958 1D     .54  3.06   .87                          194.247.  218.                                
   99       101 1            .01       .952                     20002000  2000                                
   99       556 1 T   .182 2.807 350.1                          20012001  2001                                
  100        20 1            .79         1.                     16201620  1620                                
  100       214 1          2.979      1.035  .95 1.05        100560.717.32560.                                
  100       535 1 T   .153   2.4 203.8                          17321732  1732                                
  100      3110 1    .12022.5333160.42                          19922390  2390                                
  100      4598 1     .006  .087   7.4                          18552337  2337                                
  100      4598 2     .006  .086   7.2                          18552337  2337                                
  100      4598 3    .0064 .08247.1767                          19922390  2390                                
  101       102 1     .156  2.46 208.5                          18552337  2337                                
  101       103 1     .152  2.39 202.6                          18552337  2337                                
  102       12151           2.93       1.05                     560.717.  717.                                
  102      1503 1     .129 1.998 167.7                          18552337  2337                                
  103       12451         2.9458       1.05                     560.717.  717.                                
  103       17654         2.9116       1.05                     560.728.  728.                                
  103       609 1      .06   .95 76.58                          18552337  2337                                
  103      6609 1     .024  .372  31.3                          18552337  2337                                
  103      6609 2     .017  .26738.833                          24773464  3464                                
  104        27 1D    .001  .001                                99999999  9999                                
  104       598 1     .075  1.15  98.9                          18552252  2252                                
  104       609 1      .15  2.36190.12                          18552337  2337                                
  104      3010 1          3.158709.66                          24423377  9999                                
  104      9626 1       .1  1.68252.04                          24732598  2598                                
  105        10 1           1.97      1.075                     777.777.  777.                                
  105        11 1            .95      1.075                     14771477  1477                                
  105        27 1     .093 1.456122.54                          18552337  2337                                
  105      9601 1     .092 1.363 115.3                          18552337  1855                                
  105      9608 1     .101 1.518 127.8                          18552337  2337                                
  106       108 1     .019  .389  42.1                          25982598  2598                                
  106       109 1           .001                                24732598  2473                                
  106       139 1          3.103       1.05                     560.644.  560.                                
  106       141 1         3.0419       1.05                     560.672.  784.                                
  106       142 1         4.1368       1.05                     560.716.  560.                                
  107       11052          2.141       1.05                     600.720.  600.                                
  107       17954         2.1497       1.05                     600.720.  600.                                
  109       107 1     .033  .673  72.6                          25982598  2598                                
  109      9626 1      .01   .19  29.7                          24732598  2598                                
  112       895 1            .01       1.05                     12992252  2252                                
  113       895 1            .01       1.05                     12992252  2252                                
  114       115 1         -2.124                                99999999  9999                                
  114       895 1     .001  .001       1.05                     29103668  3668                                
  115      6609 1     .262 4.249  658.                          29093667  3667                                
  116       172 1D    .125  .722  .207                          145.145.  145.                                
  116       173 1 T   .625 3.608 1.033                          153.193.  146.                                
  119       118 4         15.049         1.                      75. 75.   75.                                
  120       12151          -.526      1.0171.009 1.11        120560.717.10717.                                
  120       123 1     .357  3.95  66.7                          853.1075  1075                                
  120       164 2         7.5449       .957                     150.150.  150.                                
  120       697 1     .394  4.39 74.85                          853.1075  1075                                
  122       125 1         -2.051                                12992251  2251                                
  122       130 1         -2.051                                12992251  2251                                
  122      6609 1     .081 1.248 105.1                          18552337  2337                                
  123       12451          -.528      .9951  .95 1.11        123560.717.17717.                                
  123       162 1         5.5633         1.                     149.176.  176.                                
  123       17654         -.4129      .9951  .95 1.11        123560.728.17728.                                
  125       112 1 T   .308 3.958 444.8                          12992252  2251                                
  126        86 1     .108  1.83  51.2                          17072150  2150                                
  126        86 2     .108  1.83  51.2                          17072150  2150                                
  126       120 1 T     .6  5.95  92.8                          776.977.  977.                                
  126       120 2 T   .606  6.02  93.8                          776.977.  977.                                
  126       123 1 T    .25  2.76  46.5                          853.1075  1075                                
  126       442 1       .1   .99  15.2                          776.977.  977.                                
  127       129 1            .76                                912.1103  1103                                
  128       129 1            .76                                912.1103  1103                                
  129       442 1 T    .09   .84 13.38                          776.977.  977.                                
  130       113 1     .308 3.958 444.8                          12992252  2251                                
  131        22 1         3.6933         1.                     378.378.  378.                                
  131      3012 1     .038  .427   6.7                          853.1075  853.                                
  134        12 1            .89       .999                     11801180  1180                                
  134        13 1           5.34       .999                     99999999  9999                                
  134       120 1     .556  6.16 105.3                          853.1075  853.                                
  134       120 2     .553  6.13 107.7                          853.1075  853.                                
  134       396 1     .318  3.51  59.2                          853.1075  853.                                
  134      3012 1     .071  .755  12.8                          853.1075  853.                                
  134      3012 2     .071  .764  12.9                          853.1075  853.                                
  136        16 1            .96         1.                     12801280  1280                                
  136        17 1           7.68         1.                     99999999  9999                                
  136       120 1     .436   4.3  66.6                          776.977.  776.                                
  136       120 2     .436   4.3  66.6                          776.977.  776.                                
  136       131 1     .358 3.383   52.                          776.956.  717.                                
  136       138 1     .649  6.46 100.8                          776.977.  776.                                
  136       138 2     .558  6.19 105.7                          853.1075  853.                                
  136       367 1      .22  2.18  33.4                          776.977.  776.                                
  136       367 2 T   .179 1.78434.299                          11321132  1132                                
  136      4360 1D    .461 5.152  83.6                          853.1075  853.                                
  138       331 1     .423 4.39973.673                          11591159  1159                                
  140       133 1         4.6778      1.004                     225.225.  225.                                
  140       138 1     .652   6.5 101.4                          776.896.  776.                                
  140       138 2     .558  6.19 105.7                          853.896.  853.                                
  140       139 1          -.632      1.012  .95 1.11        140560.644.17560.                                
  140       141 1          -.669      1.012  .95 1.11        140560.672.17784.                                
  140       142 1         -1.504      1.012  .95 1.11        140560.716.17560.                                
  140       143 1         4.6867      1.004                     225.270.  315.                                
  140       144 1      .11 1.251 19.36                          776.956.  776.                                
  140       145 1         4.6563      1.004                     225.270.  315.                                
  140       146 1         4.6651      1.004                     225.270.  315.                                
  140      1781 1     .298 3.328  57.7                          853.1075  853.                                
  140      3966 1     .491 5.486  95.1                          853.1075  853.                                
  140      9607 1D    .291 2.98654.455                          853.1075  1075                                
  140      9609 1     .075  .822 13.76                          853.1075  1075                                
  144       135 1           4.42      1.004                     225.270.  225.                                
...
99999
DBSH
(NFr) O (NTo) Nc C (Vmn (Vmx Bctrl (Qini) T A (Extr
 9605      27  1 D 1000 1100    27  -136. C      27 
(G  O E (U) UOp (Sht ) M
10        1   1  -136. S
FBAN
(NFr) O (NTo) Nc C (Vmn (Vmx Bctrl (Qini) T A (Extr
   27    3010  2 F 1000 1100    27        C      27 
(G  O E (U) UOp (Sht ) M
10        1   1  -240. S
FBAN
(NFr) O (NTo) Nc C (Vmn (Vmx Bctrl (Qini) T A (Extr
   27      87  1 D 1000 1100    27  -136. C      27 
(G  O E (U) UOp (Sht ) M
10        1   1  -136. S
FBAN
(NFr) O (NTo) Nc C (Vmn (Vmx Bctrl (Qini) T A (Extr
   56            D 0800 1200    56        C         
(G  O E (U) UOp (Sht ) M
10        2   0  -180. S
FBAN
(NFr) O (NTo) Nc C (Vmn (Vmx Bctrl (Qini) T A (Extr
   57            D 0800 1200    57        C         
(G  O E (U) UOp (Sht ) M
10        3   0  -180. S
FBAN
(NFr) O (NTo) Nc C (Vmn (Vmx Bctrl (Qini) T A (Extr
   65            D 0900 1100    65        C         
(G  O E (U) UOp (Sht ) M
10        1   0  -330. S
FBAN
(NFr) O (NTo) Nc C (Vmn (Vmx Bctrl (Qini) T A (Extr
   67            D 0800 1200    67        C         
(G  O E (U) UOp (Sht ) M
10        3   0  -180. S
FBAN
(NFr) O (NTo) Nc C (Vmn (Vmx Bctrl (Qini) T A (Extr
   72            D 0900 1100    72  -660. C         
(G  O E (U) UOp (Sht ) M
10        2   2  -330. S
FBAN
(NFr) O (NTo) Nc C (Vmn (Vmx Bctrl (Qini) T A (Extr
   78            F 1020 1050    78        C         
(G  O E (U) UOp (Sht ) M
10        4   0   200. S
FBAN
(NFr) O (NTo) Nc C (Vmn (Vmx Bctrl (Qini) T A (Extr
   79            D 0800 1200    79        C         
(G  O E (U) UOp (Sht ) M
10        2   0  -180. S
FBAN
(NFr) O (NTo) Nc C (Vmn (Vmx Bctrl (Qini) T A (Extr
   82            D 0900 1100    82        C         
(G  O E (U) UOp (Sht ) M
10        5   0   200. S
FBAN
(NFr) O (NTo) Nc C (Vmn (Vmx Bctrl (Qini) T A (Extr
   85            F 0950 1050    85  1540. C         
(G  O E (U) UOp (Sht ) M
10        3   3   280. S
20        2   2   350. S
FBAN
(NFr) O (NTo) Nc C (Vmn (Vmx Bctrl (Qini) T A (Extr
   86            F 0950 1050    86 1787.4 C         
(G  O E (U) UOp (Sht ) M
10        2   2    59. S
20        3   3  220.8 S
30        4   3   237. S
40        1   0  279.8 S
50        2   0   294. S
60        2   1   296. S
FBAN
(NFr) O (NTo) Nc C (Vmn (Vmx Bctrl (Qini) T A (Extr
   90    3032  1 D 0950 1050    90   -60. C      90 
(G  O E (U) UOp (Sht ) M
10        1   1   -60. S
FBAN
(NFr) O (NTo) Nc C (Vmn (Vmx Bctrl (Qini) T A (Extr
  100    4598  2 D 1000 1100   100        C     100 
(G  O E (U) UOp (Sht ) M
10        1   0  -100. S
FBAN
(NFr) O (NTo) Nc C (Vmn (Vmx Bctrl (Qini) T A (Extr
  100    4598  3 D 1000 1100   100        C     100 
(G  O E (U) UOp (Sht ) M
10        1   0  -100. S
FBAN
(NFr) O (NTo) Nc C (Vmn (Vmx Bctrl (Qini) T A (Extr
  210     100  1 F 1000 1100   100  -100. C     100 
(G  O E (U) UOp (Sht ) M
10        1   1  -100. S
FBAN
(NFr) O (NTo) Nc C (Vmn (Vmx Bctrl (Qini) T A (Extr
  103     609  1 D 0950 1050   103        C     103 
(G  O E (U) UOp (Sht ) M
10        1   0  -112. S
FBAN
(NFr) O (NTo) Nc C (Vmn (Vmx Bctrl (Qini) T A (Extr
  105    9601  1 D 1000 1100   105        C     105 
(G  O E (U) UOp (Sht ) M
10        1   0  -136. S
FBAN
(NFr) O (NTo) Nc C (Vmn (Vmx Bctrl (Qini) T A (Extr
 9605     106  2 D 1000 1100   106        C     106 
(G  O E (U) UOp (Sht ) M
10        1   0  -136. S
FBAN
(NFr) O (NTo) Nc C (Vmn (Vmx Bctrl (Qini) T A (Extr
 9605     106  1 D 1000 1100   106        C     106 
(G  O E (U) UOp (Sht ) M
10        1   0  -136. S
FBAN
(NFr) O (NTo) Nc C (Vmn (Vmx Bctrl (Qini) T A (Extr
  120            D 0950 1050   120        C         
(G  O E (U) UOp (Sht ) M
10        1   0   150. S
FBAN
(NFr) O (NTo) Nc C (Vmn (Vmx Bctrl (Qini) T A (Extr
  122            F 0900 1100   122  -180. C         
(G  O E (U) UOp (Sht ) M
10        1   1  -180. S
FBAN
(NFr) O (NTo) Nc C (Vmn (Vmx Bctrl (Qini) T A (Extr
  123            D 0950 1050   123        C         
(G  O E (U) UOp (Sht ) M
10        2   0   100. S
FBAN
(NFr) O (NTo) Nc C (Vmn (Vmx Bctrl (Qini) T A (Extr
  126            D 0950 1050   126        C         
(G  O E (U) UOp (Sht ) M
10        1   0   100. S
20        1   0   150. S
FBAN
(NFr) O (NTo) Nc C (Vmn (Vmx Bctrl (Qini) T A (Extr
  138            D 0950 1050   138        C         
(G  O E (U) UOp (Sht ) M
10        1   0   -60. S
20        1   0  -100. S
FBAN
(NFr) O (NTo) Nc C (Vmn (Vmx Bctrl (Qini) T A (Extr
  140            D 1030 1050   140        L         
(G  O E (U) UOp (Sht ) M
10        2   0  162.5 S
FBAN
(NFr) O (NTo) Nc C (Vmn (Vmx Bctrl (Qini) T A (Extr
  147            F 0950 1050   147    60. C         
(G  O E (U) UOp (Sht ) M
10        2   1    60. S
FBAN
(NFr) O (NTo) Nc C (Vmn (Vmx Bctrl (Qini) T A (Extr
  147    3966  1 D 0950 1050   147        C     147 
(G  O E (U) UOp (Sht ) M
10        1   0   -60. S
FBAN
(NFr) O (NTo) Nc C (Vmn (Vmx Bctrl (Qini) T A (Extr
  147    3966  2 D 0950 1050   147        C     147 
(G  O E (U) UOp (Sht ) M
10        1   0   -60. S
FBAN
(NFr) O (NTo) Nc C (Vmn (Vmx Bctrl (Qini) T A (Extr
 3032     149  1 D 0950 1050   149   -60. C     149 
(G  O E (U) UOp (Sht ) M
10        1   1   -60. S
FBAN
(NFr) O (NTo) Nc C (Vmn (Vmx Bctrl (Qini) T A (Extr
 3344     149  1 D 0950 1050   149   -60. C     149 
(G  O E (U) UOp (Sht ) M
10        1   1   -60. S
FBAN
(NFr) O (NTo) Nc C (Vmn (Vmx Bctrl (Qini) T A (Extr
  154            D 0950 1050   154    10. C         
(G  O E (U) UOp (Sht ) M
10        3   1    10. S
FBAN
(NFr) O (NTo) Nc C (Vmn (Vmx Bctrl (Qini) T A (Extr
  155            D 0950 1050   155    10. C         
(G  O E (U) UOp (Sht ) M
10        3   1    10. S
FBAN
(NFr) O (NTo) Nc C (Vmn (Vmx Bctrl (Qini) T A (Extr
  156            D 0950 1050   156    10. C         
(G  O E (U) UOp (Sht ) M
10        3   1    10. S
FBAN
(NFr) O (NTo) Nc C (Vmn (Vmx Bctrl (Qini) T A (Extr
  157            D 0900 1100   157        L         
(G  O E (U) UOp (Sht ) M
10        2   0    60. S
FBAN
(NFr) O (NTo) Nc C (Vmn (Vmx Bctrl (Qini) T A (Extr
  159            D 0950 1050   159        C         
(G  O E (U) UOp (Sht ) M
10        1   0   -30. S
FBAN
(NFr) O (NTo) Nc C (Vmn (Vmx Bctrl (Qini) T A (Extr
  160            D 0950 1050   160        C         
(G  O E (U) UOp (Sht ) M
10        1   0   -30. S
FBAN
(NFr) O (NTo) Nc C (Vmn (Vmx Bctrl (Qini) T A (Extr
  163            D 0500 1300   163        C         
(G  O E (U) UOp (Sht ) M
10        2   0   -25. S
FBAN
(NFr) O (NTo) Nc C (Vmn (Vmx Bctrl (Qini) T A (Extr
  165            D 0950 1060   165        C         
(G  O E (U) UOp (Sht ) M
10        2   0   -25. S
FBAN
(NFr) O (NTo) Nc C (Vmn (Vmx Bctrl (Qini) T A (Extr
  167            D 0950 1050   167   -30. C         
(G  O E (U) UOp (Sht ) M
10        1   1   -30. S
FBAN
(NFr) O (NTo) Nc C (Vmn (Vmx Bctrl (Qini) T A (Extr
  169            F 0900 1100   169   500. L         
(G  O E (U) UOp (Sht ) M
10        2   2   250. S
FBAN
(NFr) O (NTo) Nc C (Vmn (Vmx Bctrl (Qini) T A (Extr
  170            F 0950 1050   170        C         
(G  O E (U) UOp (Sht ) M
10        1   0   150. S
FBAN
(NFr) O (NTo) Nc C (Vmn (Vmx Bctrl (Qini) T A (Extr
  174            D 0900 1100   174    75. L         
(G  O E (U) UOp (Sht ) M
10        2   1    75. S
FBAN
(NFr) O (NTo) Nc C (Vmn (Vmx Bctrl (Qini) T A (Extr
  175            F 1030 1050   175        L         
(G  O E (U) UOp (Sht ) M
10        2   0    50. S
FBAN
(NFr) O (NTo) Nc C (Vmn (Vmx Bctrl (Qini) T A (Extr
  180            D 0900 1100   180   100. L         
(G  O E (U) UOp (Sht ) M
10        2   1   100. S
FBAN
(NFr) O (NTo) Nc C (Vmn (Vmx Bctrl (Qini) T A (Extr
  185            D 1000 1050   185    25. L         
(G  O E (U) UOp (Sht ) M
10        1   1    25. S
FBAN
(NFr) O (NTo) Nc C (Vmn (Vmx Bctrl (Qini) T A (Extr
  194            D 0950 1050   194        C         
(G  O E (U) UOp (Sht ) M
10        1   0   -50. S
FBAN
(NFr) O (NTo) Nc C (Vmn (Vmx Bctrl (Qini) T A (Extr
  196            D 0950 1050   196        C         
(G  O E (U) UOp (Sht ) M
10        2   0   -50. S
FBAN
(NFr) O (NTo) Nc C (Vmn (Vmx Bctrl (Qini) T A (Extr
  197            D 0950 1050   197        C         
(G  O E (U) UOp (Sht ) M
10        1   0   -50. S
FBAN
(NFr) O (NTo) Nc C (Vmn (Vmx Bctrl (Qini) T A (Extr
  198            D 0950 1050   198        C         
(G  O E (U) UOp (Sht ) M
10        2   0   -50. S
FBAN
(NFr) O (NTo) Nc C (Vmn (Vmx Bctrl (Qini) T A (Extr
  199            D 0950 1050   199    10. C         
(G  O E (U) UOp (Sht ) M
10        3   1    10. S
FBAN
(NFr) O (NTo) Nc C (Vmn (Vmx Bctrl (Qini) T A (Extr
  205            D 0900 1100   205        L         
(G  O E (U) UOp (Sht ) M
10        1   0    50. S
FBAN
(NFr) O (NTo) Nc C (Vmn (Vmx Bctrl (Qini) T A (Extr
  206            D 0900 1100   206        L         
(G  O E (U) UOp (Sht ) M
10        1   0    50. S
FBAN
(NFr) O (NTo) Nc C (Vmn (Vmx Bctrl (Qini) T A (Extr
  233     210  1 D 1060 1090   210  -136. L     210 
(G  O E (U) UOp (Sht ) M
10        1   1  -136. S
FBAN
(NFr) O (NTo) Nc C (Vmn (Vmx Bctrl (Qini) T A (Extr
  218            D 1008 1049   218        L         
(G  O E (U) UOp (Sht ) M
10        1   0   91.5 S
FBAN
(NFr) O (NTo) Nc C (Vmn (Vmx Bctrl (Qini) T A (Extr
  217     218  2 D 1008 1049   218        L     218 
(G  O E (U) UOp (Sht ) M
10        1   0   -60. S
FBAN
(NFr) O (NTo) Nc C (Vmn (Vmx Bctrl (Qini) T A (Extr
  218     234  1 D 1008 1049   218        L     218 
(G  O E (U) UOp (Sht ) M
10        1   0   -60. S
FBAN
(NFr) O (NTo) Nc C (Vmn (Vmx Bctrl (Qini) T A (Extr
  229            D 0900 1100   229   12.7 L         
(G  O E (U) UOp (Sht ) M
10        1   1   -15. S
20        2   1   27.7 S
FBAN
(NFr) O (NTo) Nc C (Vmn (Vmx Bctrl (Qini) T A (Extr
  230            C 0950 1050   230        C         
(G  O E (U) UOp (Sht ) M
10        2   0   150. S
FBAN
(NFr) O (NTo) Nc C (Vmn (Vmx Bctrl (Qini) T A (Extr
  231            D 0950 1050   231        C         
(G  O E (U) UOp (Sht ) M
10        1   0   -45. S
FBAN
(NFr) O (NTo) Nc C (Vmn (Vmx Bctrl (Qini) T A (Extr
  232            D 0900 1100   232        L         
(G  O E (U) UOp (Sht ) M
10        2   0    15. S
FBAN
(NFr) O (NTo) Nc C (Vmn (Vmx Bctrl (Qini) T A (Extr
  233            D 1050 1085   233  -136. L         
(G  O E (U) UOp (Sht ) M
10        1   1  -136. S
FBAN
(NFr) O (NTo) Nc C (Vmn (Vmx Bctrl (Qini) T A (Extr
  234            D 0900 1100   234        L         
(G  O E (U) UOp (Sht ) M
10        2   0   150. S
FBAN
(NFr) O (NTo) Nc C (Vmn (Vmx Bctrl (Qini) T A (Extr
  235      92  1 D 1000 1100   235  -73.5 C     235 
(G  O E (U) UOp (Sht ) M
10        1   1  -73.5 S
FBAN
(NFr) O (NTo) Nc C (Vmn (Vmx Bctrl (Qini) T A (Extr
  235     299  1 D 1000 1100   235  -136. C     235 
(G  O E (U) UOp (Sht ) M
10        1   1  -136. S
FBAN
(NFr) O (NTo) Nc C (Vmn (Vmx Bctrl (Qini) T A (Extr
  238            F 0950 1050   238        C         
(G  O E (U) UOp (Sht ) M
10        1   0   -15. S
FBAN
(NFr) O (NTo) Nc C (Vmn (Vmx Bctrl (Qini) T A (Extr
  241            D 0950 1050   241    -5. C         
(G  O E (U) UOp (Sht ) M
10        1   1    -5. S
20        1   0   -25. S
FBAN
(NFr) O (NTo) Nc C (Vmn (Vmx Bctrl (Qini) T A (Extr
  245            D 0900 1100   245    15. L         
(G  O E (U) UOp (Sht ) M
10        2   1    15. S
FBAN
(NFr) O (NTo) Nc C (Vmn (Vmx Bctrl (Qini) T A (Extr
  246            D 0900 1100   246   -50. C         
(G  O E (U) UOp (Sht ) M
10        2   1   -50. S
FBAN
(NFr) O (NTo) Nc C (Vmn (Vmx Bctrl (Qini) T A (Extr
  273            D 0950 1050   273   108. C         
(G  O E (U) UOp (Sht ) M
10        2   1   108. S
FBAN
(NFr) O (NTo) Nc C (Vmn (Vmx Bctrl (Qini) T A (Extr
  274            D 0900 1100   274   67.5 L         
(G  O E (U) UOp (Sht ) M
10        2   1   67.5 S
FBAN
(NFr) O (NTo) Nc C (Vmn (Vmx Bctrl (Qini) T A (Extr
  277            D 1000 1050   277   21.6 L         
(G  O E (U) UOp (Sht ) M
10        3   1   21.6 S
FBAN
(NFr) O (NTo) Nc C (Vmn (Vmx Bctrl (Qini) T A (Extr
  278            D 1000 1050   278   67.5 L         
(G  O E (U) UOp (Sht ) M
10        2   1   67.5 S
FBAN
(NFr) O (NTo) Nc C (Vmn (Vmx Bctrl (Qini) T A (Extr
  299            D 0900 1100   299  -136. L         
(G  O E (U) UOp (Sht ) M
10        1   1  -136. S
FBAN
(NFr) O (NTo) Nc C (Vmn (Vmx Bctrl (Qini) T A (Extr
  309            F 0950 1050   309   32.8 C         
(G  O E (U) UOp (Sht ) M
10        1   1   32.8 S
FBAN
(NFr) O (NTo) Nc C (Vmn (Vmx Bctrl (Qini) T A (Extr
  313            D 0950 1050   313   100. C         
(G  O E (U) UOp (Sht ) M
10        1   1   100. S
FBAN
(NFr) O (NTo) Nc C (Vmn (Vmx Bctrl (Qini) T A (Extr
  314            F 0950 1050   314   32.8 C         
(G  O E (U) UOp (Sht ) M
10        1   1   32.8 S
FBAN
(NFr) O (NTo) Nc C (Vmn (Vmx Bctrl (Qini) T A (Extr
...